  200
       49999
Ar          18.1264      2.8970     14.1189
Ar           6.2438      8.7898     13.9874
Ar          11.7940      6.3607     10.2561
Ar          14.2118     15.9876      9.3041
Ar          19.4887     11.7837     18.0700
Ar           7.3167      3.9736     19.9531
Ar          19.7879     11.8118     14.3239
Ar           8.0408      7.5034      1.9131
Ar          18.4727     15.0556     11.9449
Ar          18.8342     19.7989      5.0460
Ar           8.1353     12.8014      4.4546
Ar          20.1479      1.6068      2.8970
Ar           2.4463      8.9591     17.2285
Ar          20.0334      8.2415     15.4156
Ar           1.5781     20.6237     13.4358
Ar          14.6634     11.1191     14.0189
Ar          16.4980     12.6223     10.0687
Ar          12.3337      1.4939      6.4289
Ar          12.3266      0.4099     15.3665
Ar           7.4803      3.1618     15.6963
Ar          16.0958     14.2543      6.4933
Ar           6.6630     15.4312     19.4862
Ar           8.5649      7.1435     11.4287
Ar           8.8723     21.0103     14.6159
Ar           1.9860      8.8943      7.9536
Ar          19.1995     14.9969     19.0226
Ar          14.2666      5.8546     13.4126
Ar           6.5996      4.9057      4.1104
Ar           9.0661     10.8312     11.2732
Ar          12.1101     11.6817     17.1735
Ar           9.0064      0.8667     20.7542
Ar          20.3399     18.0289     13.3745
Ar           8.1311      2.2742      5.9993
Ar          14.6132     19.7663      1.7073
Ar          18.5054      6.1196      1.1717
Ar           5.1444     16.2807      9.1933
Ar           1.7506     12.7636     16.2458
Ar          12.7657      7.7132      6.3101
Ar          17.8841      8.9025     19.9216
Ar           5.4344     14.4421     16.3625
Ar          16.8027     17.1216     17.5074
Ar          13.3428     16.3408     15.6146
Ar          13.5256     12.3200      0.8575
Ar          14.5751     16.5604      3.9518
Ar           4.2326     17.8804     17.8788
Ar           5.7228      8.3260     20.4628
Ar           6.1931      8.0128      7.0875
Ar          11.1001     20.7314     11.3677
Ar          14.4848     14.5390     12.6699
Ar           5.3300      2.0730      1.1406
Ar           1.5194     10.9583      5.0822
Ar          14.4110     14.6878     19.1307
Ar          17.1233      3.3987     10.5077
Ar          13.2956     10.0583      3.5609
Ar           0.1443      3.8949     13.9697
Ar           8.8448     16.3062      7.7735
Ar           9.9294     17.7504     14.0692
Ar           8.8162      3.2473      9.7858
Ar           3.6101      2.9337     19.0303
Ar          12.3138      1.6289      2.7024
Ar          20.6490     13.8947      4.7629
Ar          14.9054      3.3649     16.6240
Ar           0.3722      5.5325     17.7398
Ar          11.6395      6.8583      1.9765
Ar          11.2850     16.9874     10.7708
Ar           5.7434     12.3373     13.5480
Ar           0.0605     17.7378     17.6090
Ar          13.6155     18.1301     19.0089
Ar          18.3980     20.3788     15.6132
Ar          10.6368     10.0188      1.0028
Ar          14.6291     11.1774      6.8829
Ar          11.0197     20.0141     17.9936
Ar           9.5575     20.2374      7.0211
Ar           2.6003     10.7019     13.4402
Ar          16.3929      8.4271      2.0680
Ar          15.2101     20.0190     16.5328
Ar          20.3853      9.6195      2.1536
Ar           5.1288     10.8614      5.2152
Ar          18.6267     16.1525      3.2732
Ar           2.3246     20.4914     19.1757
Ar          18.1142      2.3212     20.8955
Ar           1.5194     10.5433     20.8360
Ar          18.6150      3.0417     17.5026
Ar          20.3124     12.5491     10.7048
Ar           4.9775      8.5668     10.8047
Ar          13.4008      2.4014     10.1324
Ar           9.0811      5.7861      7.4051
Ar          12.0900      8.3869     13.2660
Ar           2.7681     16.7610     14.7414
Ar          18.2886     19.3713      1.5573
Ar           3.7086      9.1394      1.9611
Ar          15.2184      6.0538      9.4191
Ar           1.3838     13.8283     19.3706
Ar           9.1746     14.3285     15.4128
Ar          12.2042     16.1584      6.5055
Ar          13.8665      9.1760     20.4196
Ar          15.4424      3.4856      6.9843
Ar          12.7714      6.6147     17.2069
Ar          12.5917     16.0993      0.7153
Ar           2.1714     13.1861      2.1985
Ar          20.7720      8.0649      5.3195
Ar           5.6327      5.1252     12.8384
Ar           7.7976     18.6818     10.8167
Ar          15.2625      5.4589     20.2196
Ar           1.1782      4.5826      7.1219
Ar           4.6492     12.7806     20.3890
Ar           6.5557     17.5491      4.5611
Ar          19.0201     20.5752     19.2009
Ar          16.7748     13.7509     15.3754
Ar           7.6164     18.5688      0.1997
Ar           6.1674     10.6988     17.2229
Ar          11.9948      3.5745     20.9006
Ar          16.8506      8.7772     13.1335
Ar          19.1759      5.9992     12.3612
Ar           5.7138     14.4215      2.4375
Ar          16.9273     17.2977     14.1440
Ar          19.1133     11.1064      6.0952
Ar           1.5857      0.3428      5.6990
Ar          18.0586      9.4201      9.6489
Ar           3.9512      2.8738      5.5440
Ar           6.4339      1.0448     12.1330
Ar          15.9192      1.6130      3.0385
Ar           3.8009     19.4824     11.0176
Ar           7.7393     18.1812     17.5287
Ar           2.0434      5.9511     10.3722
Ar           3.5299      6.9064      4.8095
Ar           0.7401      6.3458      0.3866
Ar          10.5489     15.8619     18.4486
Ar           9.1495      3.5397      2.0310
Ar           0.3963      2.5684     20.3702
Ar           0.6505     16.5665     10.5984
Ar           2.6152      2.0668      9.6039
Ar          11.0908     11.0338      6.7832
Ar           3.7791     11.7818      9.7093
Ar           5.6500      6.1739     17.5735
Ar           5.1297     20.8895      4.3839
Ar          11.4842      4.5334      4.6901
Ar          11.1549     19.3368      1.0417
Ar          16.2269      9.7271     16.7642
Ar          16.6873      7.9710      5.9190
Ar           7.3316     12.3638      8.4428
Ar           0.0042     17.5793      6.1190
Ar          11.8905     19.0067      4.8454
Ar          10.4212      2.5019     17.9215
Ar          15.0958      5.0864      3.1412
Ar          16.4198     16.7468      0.2885
Ar           0.7558      1.4236     16.8666
Ar          15.2559     19.6693      5.5305
Ar          13.6902      0.7248     19.9623
Ar           8.9051      6.7582     15.7901
Ar          19.2301     14.5920      8.2602
Ar           3.1747     18.4879      7.1022
Ar           2.5649     16.7014      4.0856
Ar          20.9079      9.1732     11.7590
Ar          17.0652      6.0536     16.0590
Ar           6.0138      0.4850     18.1628
Ar           5.6498      4.5458      8.4698
Ar           1.7072     14.2520      7.5128
Ar           4.9818     14.3492      6.1758
Ar          12.1447     13.6393      3.9452
Ar           8.8703      8.4886      5.2488
Ar           0.2564     20.2086      8.9179
Ar           4.0773      5.4148      0.9707
Ar           0.6656     19.2467      2.8032
Ar           9.4611      7.0472     19.2267
Ar          18.7847      5.0808      4.7402
Ar           7.2042     11.0864      1.4651
Ar           6.3311     17.1471     14.2427
Ar           3.2027     16.0967      0.0162
Ar           9.8584     16.7631      3.3617
Ar          14.0025     18.5141     12.3840
Ar          21.0923     17.0301      0.2546
Ar          17.9100     17.7832      8.7147
Ar          17.5559     19.6788     11.8285
Ar           1.5012     14.1851     12.7516
Ar          16.0161      0.4474      8.4225
Ar          11.7173     12.7177     13.4405
Ar           8.4615     14.4659     11.7112
Ar           4.8297     20.4744     15.1923
Ar           8.9304     12.6024     18.7212
Ar          20.5283      2.6879     10.4350
Ar          10.5146      3.6909     13.5178
Ar           3.8173      2.8533     14.8794
Ar           9.2961     10.5077     15.1237
Ar          12.8546      9.6761      9.9416
Ar          19.2923      5.9872      8.7725
Ar          19.4994     13.0364      0.9748
Ar           8.3770     20.7686      3.1781
Ar          13.0838     19.6912      8.6540
Ar          19.0858      2.2833      7.3100
Ar          16.2424     13.1418      3.2963
Ar          16.5181     12.2914     20.3003
Ar           2.2083      6.4694     14.0312
Ar           1.4072      4.2438      3.4036
Ar          14.9375      0.8428     13.0806
Ar           9.0395     14.0076      0.9178
Ar           6.2100      0.1493      8.7214
Ar          19.9744     15.1882     15.7126
Ar          11.5728     13.3371      9.4104
Ar           3.8585     19.5769      1.3424
